Version 4
SHEET 1 1812 756
WIRE -3472 -2512 -3472 -2576
WIRE -2528 -2512 -2528 -2592
WIRE -3600 -2480 -3600 -2544
WIRE -3504 -2480 -3600 -2480
WIRE -3232 -2480 -3408 -2480
WIRE -2640 -2480 -2640 -2528
WIRE -2560 -2480 -2640 -2480
WIRE -2176 -2480 -2464 -2480
WIRE -3760 -2448 -3872 -2448
WIRE -3680 -2448 -3760 -2448
WIRE -3504 -2448 -3616 -2448
WIRE -2800 -2448 -2928 -2448
WIRE -2768 -2448 -2800 -2448
WIRE -2560 -2448 -2704 -2448
WIRE -3680 -2432 -3696 -2432
WIRE -3696 -2400 -3696 -2432
WIRE -2528 -2400 -2528 -2416
WIRE -3472 -2368 -3472 -2416
WIRE -3440 -2368 -3440 -2416
WIRE -2496 -2368 -2496 -2416
WIRE 16 -2336 -64 -2336
WIRE 160 -2336 96 -2336
WIRE -1008 -2288 -1072 -2288
WIRE -800 -2288 -928 -2288
WIRE -2624 -2256 -2624 -2288
WIRE -2560 -2256 -2624 -2256
WIRE -2176 -2256 -2176 -2480
WIRE -2176 -2256 -2464 -2256
WIRE -3472 -2240 -3472 -2304
WIRE -2800 -2224 -2800 -2448
WIRE -2560 -2224 -2800 -2224
WIRE -3504 -2208 -3632 -2208
WIRE -3232 -2208 -3232 -2480
WIRE -3232 -2208 -3408 -2208
WIRE -1872 -2192 -1872 -2288
WIRE -1760 -2192 -1760 -2288
WIRE 0 -2192 0 -2224
WIRE -3760 -2176 -3760 -2448
WIRE -3504 -2176 -3760 -2176
WIRE -144 -2176 -288 -2176
WIRE -64 -2176 -64 -2336
WIRE -64 -2176 -144 -2176
WIRE -32 -2176 -64 -2176
WIRE 160 -2160 160 -2336
WIRE 160 -2160 32 -2160
WIRE 208 -2160 160 -2160
WIRE -2496 -2144 -2496 -2192
WIRE -960 -2144 -960 -2176
WIRE -32 -2144 -80 -2144
WIRE 416 -2144 400 -2144
WIRE -2528 -2128 -2528 -2192
WIRE -1200 -2128 -1344 -2128
WIRE -1072 -2128 -1072 -2288
WIRE -1072 -2128 -1200 -2128
WIRE -992 -2128 -1072 -2128
WIRE 208 -2128 176 -2128
WIRE -800 -2112 -800 -2288
WIRE -800 -2112 -928 -2112
WIRE -736 -2112 -800 -2112
WIRE -288 -2112 -288 -2176
WIRE -144 -2112 -144 -2176
WIRE -992 -2096 -1088 -2096
WIRE -512 -2096 -544 -2096
WIRE 0 -2096 0 -2128
WIRE 176 -2096 176 -2128
WIRE -3472 -2080 -3472 -2144
WIRE -3440 -2080 -3440 -2144
WIRE -1872 -2080 -1872 -2112
WIRE -1808 -2080 -1872 -2080
WIRE -1760 -2080 -1760 -2112
WIRE -1760 -2080 -1808 -2080
WIRE -736 -2080 -784 -2080
WIRE -1808 -2064 -1808 -2080
WIRE -1344 -2048 -1344 -2128
WIRE -1200 -2048 -1200 -2128
WIRE -784 -2048 -784 -2080
WIRE -80 -2048 -80 -2144
WIRE -1088 -2016 -1088 -2096
WIRE -960 -2000 -960 -2080
WIRE -3488 -1984 -3488 -2016
WIRE -2528 -1968 -2528 -2032
WIRE -288 -1968 -288 -2032
WIRE -144 -1968 -144 -2032
WIRE -3520 -1952 -3584 -1952
WIRE -3232 -1952 -3424 -1952
WIRE -2640 -1936 -2640 -2000
WIRE -2560 -1936 -2640 -1936
WIRE -2176 -1936 -2464 -1936
WIRE -3744 -1920 -3808 -1920
WIRE -3696 -1920 -3744 -1920
WIRE -3520 -1920 -3632 -1920
WIRE -1344 -1920 -1344 -1968
WIRE -1200 -1920 -1200 -1968
WIRE -2816 -1904 -2944 -1904
WIRE -2768 -1904 -2816 -1904
WIRE -2560 -1904 -2704 -1904
WIRE -3696 -1856 -3696 -1904
WIRE -2496 -1840 -2496 -1872
WIRE -2528 -1824 -2528 -1872
WIRE -1744 -1824 -1904 -1824
WIRE -3472 -1792 -3488 -1792
WIRE -3488 -1744 -3488 -1792
WIRE -3520 -1712 -3584 -1712
WIRE -3232 -1712 -3232 -1952
WIRE -3232 -1712 -3424 -1712
WIRE -2528 -1696 -2528 -1760
WIRE -1744 -1696 -1872 -1696
WIRE -3744 -1680 -3744 -1920
WIRE -3520 -1680 -3744 -1680
WIRE -2624 -1664 -2624 -1696
WIRE -2560 -1664 -2624 -1664
WIRE -2176 -1664 -2176 -1936
WIRE -2176 -1664 -2464 -1664
WIRE -1904 -1664 -1904 -1824
WIRE -1904 -1664 -1920 -1664
WIRE -2816 -1632 -2816 -1904
WIRE -2560 -1632 -2816 -1632
WIRE -1872 -1616 -1872 -1696
WIRE -1872 -1616 -1920 -1616
WIRE -3488 -1600 -3488 -1648
WIRE -1744 -1568 -1920 -1568
WIRE -2496 -1552 -2496 -1600
WIRE -2528 -1536 -2528 -1600
WIRE -1872 -1520 -1920 -1520
WIRE -1872 -1440 -1872 -1520
WIRE -1744 -1440 -1872 -1440
WIRE -1984 -1408 -1984 -1440
WIRE -2000 -1024 -2000 -1088
WIRE -1872 -1024 -1872 -1088
WIRE -2000 -880 -2000 -944
WIRE -1872 -880 -1872 -944
WIRE -1872 -880 -2000 -880
WIRE -1872 -864 -1872 -880
FLAG -1088 -2016 0
FLAG -1808 -2064 0
FLAG -1872 -2288 vcc
IOPIN -1872 -2288 Out
FLAG -1760 -2288 -vcc
IOPIN -1760 -2288 Out
FLAG -960 -2176 vcc
IOPIN -960 -2176 In
FLAG -960 -2000 -vcc
IOPIN -960 -2000 In
FLAG -512 -2096 IZ
IOPIN -512 -2096 Out
FLAG -1984 -1408 0
FLAG -1744 -1696 I1
IOPIN -1744 -1696 Out
FLAG -1744 -1824 I0
IOPIN -1744 -1824 Out
FLAG -1744 -1568 Q1
IOPIN -1744 -1568 Out
FLAG -1744 -1440 Q0
IOPIN -1744 -1440 Out
FLAG -80 -2048 0
FLAG 0 -2224 vcc
IOPIN 0 -2224 In
FLAG 0 -2096 -vcc
IOPIN 0 -2096 In
FLAG 416 -2144 QZ
IOPIN 416 -2144 Out
FLAG -784 -2048 0
FLAG 176 -2096 0
FLAG -3440 -2368 -vcc
FLAG -3440 -2080 -vcc
FLAG -3696 -2400 0
FLAG -3472 -2576 vcc
FLAG -3472 -2368 0
FLAG -3872 -2448 I0
FLAG -3472 -2304 vcc
FLAG -3472 -2080 0
FLAG -1872 -864 0
FLAG -2000 -1088 2.5vcc
FLAG -1872 -1088 -2.5vcc
FLAG -3600 -2544 2.5vcc
FLAG -3632 -2208 -2.5vcc
FLAG -3232 -2480 O1
FLAG -3696 -1856 0
FLAG -3808 -1920 I1
FLAG -3584 -1952 2.5vcc
FLAG -3584 -1712 -2.5vcc
FLAG -3232 -1952 o2
FLAG -2768 -2432 0
FLAG -2768 -1888 0
FLAG -2640 -2528 2.5vcc
FLAG -2640 -2000 2.5vcc
FLAG -2624 -2288 -2.5vcc
FLAG -2624 -1696 -2.5vcc
FLAG -2928 -2448 Q0
FLAG -2944 -1904 Q1
FLAG -2528 -2592 vcc
FLAG -2528 -2352 vcc
FLAG -2528 -2032 vcc
FLAG -2528 -1760 vcc
FLAG -2528 -2128 0
FLAG -2528 -1824 0
FLAG -2528 -1536 0
FLAG -2528 -2400 0
FLAG -2496 -2368 -vcc
FLAG -2496 -2144 -vcc
FLAG -2496 -1840 -vcc
FLAG -2496 -1552 -vcc
FLAG -2176 -2480 o3
FLAG -2176 -1936 o4
FLAG -3488 -2016 vcc
FLAG -3472 -1792 vcc
FLAG -3488 -1888 0
FLAG -3488 -1600 0
FLAG -3456 -1648 -vcc
FLAG -3456 -1888 -vcc
FLAG -1344 -1920 o1
FLAG -1200 -1920 o2
FLAG -288 -1968 o3
FLAG -144 -1968 o4
SYMBOL OpAmps\\OP113 -960 -2176 R0
SYMATTR InstName U1
SYMBOL res -1328 -1952 R180
WINDOW 0 36 76 Left 2
WINDOW 3 36 40 Left 2
SYMATTR InstName R1
SYMATTR Value 20k
SYMBOL res -1184 -1952 R180
WINDOW 0 36 76 Left 2
WINDOW 3 36 40 Left 2
SYMATTR InstName R2
SYMATTR Value 10k
SYMBOL res -912 -2304 R90
WINDOW 0 0 56 VBottom 2
WINDOW 3 32 56 VTop 2
SYMATTR InstName R3
SYMATTR Value 10k
SYMBOL voltage -1872 -2208 R0
WINDOW 123 0 0 Left 0
WINDOW 39 0 0 Left 0
SYMATTR InstName V3
SYMATTR Value 5
SYMBOL voltage -1760 -2208 R0
WINDOW 123 0 0 Left 0
WINDOW 39 0 0 Left 0
SYMATTR InstName V4
SYMATTR Value -5
SYMBOL source_signal_random_NRZ4 -1968 -1504 R0
SYMATTR InstName X2
SYMBOL OpAmps\\OP113 0 -2224 R0
SYMATTR InstName U2
SYMBOL res -272 -2016 R180
WINDOW 0 36 76 Left 2
WINDOW 3 36 40 Left 2
SYMATTR InstName R4
SYMATTR Value 20k
SYMBOL res 112 -2352 R90
WINDOW 0 0 56 VBottom 2
WINDOW 3 32 56 VTop 2
SYMATTR InstName R5
SYMATTR Value 10k
SYMBOL res -128 -2016 R180
WINDOW 0 36 76 Left 2
WINDOW 3 36 40 Left 2
SYMATTR InstName R6
SYMATTR Value 10k
SYMBOL 10th_Bessel_LPfilter -672 -2064 R0
SYMATTR InstName X1
SYMBOL 10th_Bessel_LPfilter 272 -2112 R0
SYMATTR InstName X3
SYMBOL Digital\\inv -3680 -2512 R0
WINDOW 3 8 60 Invisible 2
SYMATTR Value Vhigh=5
SYMATTR InstName A1
SYMBOL voltage -2000 -1040 R0
WINDOW 123 0 0 Left 0
WINDOW 39 0 0 Left 0
SYMATTR InstName V1
SYMATTR Value 0.5
SYMBOL voltage -1872 -1040 R0
WINDOW 123 0 0 Left 0
WINDOW 39 0 0 Left 0
SYMATTR InstName V2
SYMATTR Value -0.5
SYMBOL Digital\\inv -3696 -1984 R0
WINDOW 3 8 60 Invisible 2
SYMATTR Value Vhigh=5
SYMATTR InstName A2
SYMBOL XX405X -2512 -1648 R0
SYMATTR SpiceModel SWI1T
SYMATTR InstName U10
SYMBOL Digital\\inv -2768 -1968 R0
WINDOW 3 8 60 Invisible 2
SYMATTR Value Vhigh=5
SYMATTR InstName A3
SYMBOL Digital\\inv -2768 -2512 R0
WINDOW 3 8 60 Invisible 2
SYMATTR Value Vhigh=5
SYMATTR InstName A6
SYMBOL XX405X -2512 -1920 R0
SYMATTR SpiceModel SWI1T
SYMATTR InstName U3
SYMBOL XX405X -2512 -2240 R0
SYMATTR SpiceModel SWI1T
SYMATTR InstName U4
SYMBOL XX405X -3472 -1936 R0
SYMATTR SpiceModel SWI1T
SYMATTR InstName U5
SYMBOL XX405X -3456 -2192 R0
SYMATTR SpiceModel SWI1T
SYMATTR InstName U6
SYMBOL XX405X -3456 -2464 R0
SYMATTR SpiceModel SWI1T
SYMATTR InstName U7
SYMBOL XX405X -2512 -2464 R0
SYMATTR SpiceModel SWI1T
SYMATTR InstName U8
SYMBOL XX405X -3472 -1696 R0
SYMATTR SpiceModel SWI1T
SYMATTR InstName U9
TEXT -1520 -2568 Left 2 !.param br=200k
TEXT -1904 -2392 Left 2 ;POWER SUPPLY
TEXT -1984 -1912 Left 2 ;RANDOM BIT GENERATOR
TEXT 8 -2440 Left 2 ;NRZ_4 Q
TEXT -992 -2368 Left 2 ;NRZ_4 I
TEXT -728 -2000 Left 2 !.param fc=30k
TEXT -1048 -2416 Left 2 ;Weighte Resistor DAC
TEXT -48 -2480 Left 2 ;Weighted Resistor DAC
TEXT 440 -2392 Left 2 !.INCLUDE Hc_tnomi.cir
TEXT 456 -2336 Left 2 !.PARAM  VCC=5
TEXT 464 -2296 Left 2 !;OP
TEXT -3912 -840 Left 2 !.tran 2m
