Version 4
SHEET 1 2032 764
WIRE 352 32 288 32
WIRE 352 80 288 80
WIRE 352 128 288 128
WIRE 576 128 544 128
WIRE 608 128 576 128
WIRE 736 128 704 128
WIRE 768 128 736 128
WIRE 880 128 848 128
WIRE 912 128 880 128
WIRE 1040 128 1008 128
WIRE 1072 128 1040 128
WIRE 1232 128 1200 128
WIRE 1264 128 1232 128
WIRE 352 176 288 176
WIRE 608 192 608 128
WIRE 768 192 768 128
WIRE 912 192 912 128
WIRE 1072 192 1072 128
WIRE 1264 192 1264 128
WIRE 352 224 288 224
WIRE 224 320 224 256
WIRE 608 320 608 272
WIRE 768 320 768 272
WIRE 912 320 912 272
WIRE 1072 320 1072 272
WIRE 1264 320 1264 272
FLAG 608 320 0
FLAG 768 320 0
FLAG 576 128 I0
FLAG 736 128 I1
FLAG 1264 320 0
FLAG 1232 128 Clock
FLAG 352 128 Q1
FLAG 352 176 Q0
FLAG 352 224 Clock
FLAG 224 320 0
FLAG 352 80 I0
FLAG 352 32 I1
FLAG 912 320 0
FLAG 1072 320 0
FLAG 880 128 Q0
FLAG 1040 128 Q1
SYMBOL res 592 176 R0
SYMATTR InstName R3
SYMATTR Value 10k
SYMBOL res 752 176 R0
SYMATTR InstName R4
SYMATTR Value 10k
SYMBOL res 1248 176 R0
SYMATTR InstName R1
SYMATTR Value 10k
SYMBOL source_signal_random_NRZ4 240 192 R0
SYMATTR InstName X1
SYMBOL res 896 176 R0
SYMATTR InstName R2
SYMATTR Value 10k
SYMBOL res 1056 176 R0
SYMATTR InstName R5
SYMATTR Value 10k
TEXT 152 -40 Left 2 !.param br=200k
TEXT 696 -32 Left 2 !.tran 0 200u 0 100p
