Version 4
SHEET 1 2080 1316
WIRE 112 128 112 80
WIRE -224 160 -304 160
WIRE 80 160 -96 160
WIRE 304 160 176 160
WIRE 512 160 448 160
WIRE -48 192 -64 192
WIRE 80 192 -48 192
WIRE -304 208 -304 160
WIRE 512 208 512 160
WIRE 736 208 736 176
WIRE -64 224 -64 192
WIRE 112 256 112 224
WIRE 144 304 144 224
WIRE -304 320 -304 288
WIRE -64 320 -64 304
WIRE 512 320 512 288
WIRE 736 320 736 288
WIRE 144 400 144 384
FLAG 736 320 0
FLAG -304 320 0
FLAG 512 320 0
FLAG -64 320 0
FLAG 112 256 0
FLAG -96 160 in
FLAG 304 160 out
FLAG 112 80 vcc
FLAG -48 192 ctr2
FLAG 144 400 0
FLAG -224 160 in
FLAG 448 160 out
FLAG 736 176 vcc
SYMBOL voltage 736 192 R0
SYMATTR InstName V1
SYMATTR Value {VCC}
SYMBOL voltage -304 192 R0
SYMATTR InstName V2
SYMATTR Value 2.5
SYMBOL bv 512 192 R0
SYMATTR InstName B1
SYMATTR Value V=V(in)-0.01
SYMBOL voltage -64 208 R0
SYMATTR InstName V6
SYMATTR Value 0
SYMBOL XX405X 128 176 R0
SYMATTR SpiceModel SWI1T
SYMATTR InstName U3
SYMBOL voltage 144 288 R0
SYMATTR InstName V4
SYMATTR Value -5
TEXT -304 -232 Left 0 !.INCLUDE Hc_tnomi.cir
TEXT -304 -32 Left 0 !.OP
TEXT -304 -72 Left 0 !.DC V2 -5 5 0.01
TEXT 176 72 Left 0 ;74HC4051, 74HC4052, 74HC4053,
TEXT 344 -504 Left 0 ;4051   single 8->1 mux  2V  to 10V or +/-5V\n4052   dual 4->1   mux   2V  to 10V or +/-5V\n4053   triple 2->1  mux   2V  to 10V or +/-5V\n4066   quad 1->1            2V  to 10V\n4316   quad 1->1            2V  to 10V or +/-5V\n \n Partnumber to SPICE model \n74HC4051     e  y  z  -  +  0  SWI1      \n74HCT4051   e  y  z  -  +  0  SWI1T  \n74HC4052     e  y  z  -  +  0  SWI1      \n74HCT4052   e  y  z  -  +  0  SWI1T\n74HC4053     e  y  z  -  +  0  SWI1      \n74HCT4053   e  y  z  -  +  0  SWI1T \n74HC4066     e  y  z     +  0  SWI2     \n74HCT4066   e  y  z     +  0  SWI2T\n74HC4316     e  y  z  -  +  0  SWI3      \n74HCT4316   e  y  z  -  +  0  SWI3T
TEXT 200 352 Left 0 ;0 to- 5V
TEXT -304 -496 Left 0 ;Test circuit 74HC40XX\n \nRds_on = delta_V/I = V(in,out)/Ix(U1:Y)\n \nThe model file HC_TNOMI.CIR is from Philips.\n \nhttp://www.standardics.philips.com/support/spice/#\nhttp://www.standardics.philips.com/support/spice/hc.zip
TEXT -304 -112 Left 0 !.PARAM  VCC=5
TEXT -304 -168 Left 0 ;.INCLUDE Hc_tfast.cir
TEXT -304 -200 Left 0 ;.INCLUDE Hc_tslow.cir
