Version 4
SHEET 1 2080 1316
WIRE -1904 64 -1904 16
WIRE -1936 96 -2112 96
WIRE -1712 96 -1840 96
WIRE -1648 96 -1712 96
WIRE -1536 96 -1648 96
WIRE -1488 96 -1536 96
WIRE -2048 128 -2144 128
WIRE -1936 128 -1984 128
WIRE -1648 144 -1648 96
WIRE -1536 160 -1536 96
WIRE -2048 192 -2048 144
WIRE -1904 192 -1904 160
WIRE -1872 240 -1872 160
WIRE -1536 272 -1536 224
WIRE -2464 320 -2528 320
WIRE -1648 336 -1648 224
WIRE -2464 368 -2528 368
WIRE -1648 464 -1648 416
WIRE -2592 512 -2592 448
WIRE -1984 528 -2096 528
WIRE -1920 544 -1920 464
WIRE -1984 576 -1984 528
WIRE -1952 576 -1984 576
WIRE -1728 576 -1856 576
WIRE -1712 576 -1712 96
WIRE -1712 576 -1728 576
WIRE -1664 576 -1712 576
WIRE -1584 576 -1664 576
WIRE -2048 608 -2160 608
WIRE -1952 608 -1984 608
WIRE -1664 640 -1664 576
WIRE -1728 656 -1728 576
WIRE -2048 704 -2048 624
WIRE -1920 704 -1920 640
WIRE -1888 784 -1888 640
WIRE -1728 832 -1728 720
WIRE -1664 832 -1664 720
WIRE -1664 832 -1728 832
WIRE -1664 944 -1664 912
WIRE -2816 1056 -2816 1008
WIRE -2704 1056 -2704 1008
WIRE -2592 1056 -2592 1024
WIRE -2480 1056 -2480 1008
WIRE -2816 1200 -2816 1136
WIRE -2704 1200 -2704 1136
WIRE -2704 1200 -2816 1200
WIRE -2592 1200 -2592 1136
WIRE -2592 1200 -2704 1200
WIRE -2480 1200 -2480 1136
WIRE -2480 1200 -2592 1200
WIRE -2816 1232 -2816 1200
FLAG -2816 1232 0
FLAG -1904 192 0
FLAG -1904 16 vcc
FLAG -2592 1024 vcc
FLAG -1920 464 VCC
FLAG -1920 704 0
FLAG -1648 464 0
FLAG -1664 944 0
FLAG -2592 512 0
FLAG -1488 96 I_Z
IOPIN -1488 96 Out
FLAG -1584 576 Q_Z
IOPIN -1584 576 Out
FLAG -2816 1008 in_1
FLAG -2704 1008 in_2
FLAG -2112 96 in_1
FLAG -2096 528 in_2
FLAG -2464 320 I
FLAG -2464 368 Q
FLAG -2160 608 Q
FLAG -2144 128 I
FLAG -2048 704 0
FLAG -2048 192 0
FLAG -2480 1008 -vcc
FLAG -1872 240 -vcc
FLAG -1888 784 -vcc
FLAG -1536 272 0
SYMBOL voltage -2592 1040 R0
SYMATTR InstName V1
SYMATTR Value {VCC}
SYMBOL voltage -2816 1040 R0
WINDOW 123 0 0 Left 0
WINDOW 39 0 0 Left 0
SYMATTR InstName V2
SYMATTR Value 0.5
SYMBOL XX405X -1888 112 R0
SYMATTR SpiceModel SWI1T
SYMATTR InstName U3
SYMBOL res -1664 128 R0
SYMATTR InstName R1
SYMATTR Value 10K
SYMBOL cap -1552 160 R0
SYMATTR InstName C1
SYMATTR Value 0.05n
SYMBOL Digital\\inv -2048 64 R0
WINDOW 3 8 60 Invisible 2
SYMATTR InstName A1
SYMATTR Value Vhigh=5
SYMBOL XX405X -1904 592 R0
SYMATTR SpiceModel SWI1T
SYMATTR InstName U5
SYMBOL voltage -2704 1040 R0
WINDOW 123 0 0 Left 0
WINDOW 39 0 0 Left 0
SYMATTR InstName V4
SYMATTR Value 1
SYMBOL Digital\\inv -2048 544 R0
SYMATTR InstName A2
SYMATTR Value2 Vhigh=5
SYMBOL res -1680 624 R0
SYMATTR InstName R2
SYMATTR Value 15K
SYMBOL cap -1744 656 R0
SYMATTR InstName C3
SYMATTR Value 0.05n
SYMBOL voltage -2480 1040 R0
WINDOW 123 0 0 Left 0
WINDOW 39 0 0 Left 0
SYMATTR InstName V7
SYMATTR Value -5
SYMBOL voltage -1648 320 R0
WINDOW 123 0 0 Left 0
WINDOW 39 0 0 Left 0
SYMATTR InstName V8
SYMATTR Value -0.5
SYMBOL voltage -1664 816 R0
WINDOW 123 0 0 Left 0
WINDOW 39 0 0 Left 0
SYMATTR InstName V9
SYMATTR Value -1
SYMBOL source_signal_random_NRZ2 -2576 384 R0
SYMATTR InstName X1
TEXT -304 -232 Left 0 !.INCLUDE Hc_tnomi.cir
TEXT -304 -32 Left 0 !;OP
TEXT -304 -72 Left 0 !;DC V2 -5 5 0.01
TEXT -1840 8 Left 0 ;74HC4051, 74HC4052, 74HC4053,
TEXT 344 -504 Left 0 ;4051   single 8->1 mux  2V  to 10V or +/-5V\n4052   dual 4->1   mux   2V  to 10V or +/-5V\n4053   triple 2->1  mux   2V  to 10V or +/-5V\n4066   quad 1->1            2V  to 10V\n4316   quad 1->1            2V  to 10V or +/-5V\n \n Partnumber to SPICE model \n74HC4051     e  y  z  -  +  0  SWI1      \n74HCT4051   e  y  z  -  +  0  SWI1T  \n74HC4052     e  y  z  -  +  0  SWI1      \n74HCT4052   e  y  z  -  +  0  SWI1T\n74HC4053     e  y  z  -  +  0  SWI1      \n74HCT4053   e  y  z  -  +  0  SWI1T \n74HC4066     e  y  z     +  0  SWI2     \n74HCT4066   e  y  z     +  0  SWI2T\n74HC4316     e  y  z  -  +  0  SWI3      \n74HCT4316   e  y  z  -  +  0  SWI3T
TEXT -304 -496 Left 0 ;Test circuit 74HC40XX\n \nRds_on = delta_V/I = V(in,out)/Ix(U1:Y)\n \nThe model file HC_TNOMI.CIR is from Philips.\n \nhttp://www.standardics.philips.com/support/spice/#\nhttp://www.standardics.philips.com/support/spice/hc.zip
TEXT -304 -112 Left 0 !.PARAM  VCC=5
TEXT -304 -168 Left 0 ;.INCLUDE Hc_tfast.cir
TEXT -304 -200 Left 0 ;.INCLUDE Hc_tslow.cir
TEXT -2296 312 Left 2 !.tran 10m
TEXT -2664 168 Left 2 !.param br=200k
