Version 4
SHEET 1 1976 1036
WIRE 176 -32 -64 -32
WIRE -64 0 -64 -32
WIRE 176 16 176 -32
WIRE 176 112 176 96
WIRE 400 112 176 112
WIRE 176 128 176 112
WIRE -352 144 -352 96
WIRE -240 144 -240 96
WIRE -64 176 -64 80
WIRE 112 176 -64 176
WIRE -64 240 -64 176
WIRE -352 256 -352 224
WIRE -240 256 -240 224
WIRE 176 368 176 224
FLAG -352 256 0
FLAG -240 256 0
FLAG -352 96 vcc
FLAG -240 96 ve
FLAG 176 -32 vcc
FLAG -64 320 0
FLAG 176 368 ve
FLAG 400 112 outt
FLAG -64 176 y
SYMBOL npn 112 128 R0
SYMATTR InstName Q1
SYMATTR Value 2N2222
SYMBOL voltage -352 128 R0
WINDOW 123 0 0 Left 0
WINDOW 39 0 0 Left 0
SYMATTR InstName V1
SYMATTR Value 5
SYMBOL res 160 0 R0
SYMATTR InstName R2
SYMATTR Value 10k
SYMBOL res -80 -16 R0
SYMATTR InstName R3
SYMATTR Value 10k
SYMBOL res -80 224 R0
SYMATTR InstName R5
SYMATTR Value 10k
SYMBOL voltage -240 128 R0
WINDOW 123 0 0 Left 0
WINDOW 39 0 0 Left 0
SYMATTR InstName V2
SYMATTR Value 2.5
TEXT -384 280 Left 2 !.tran 10u
